21 
 Energy -1311.50165391240   Step 31
   C  0.1410793535  0.4581345076  0.2201593117
   C  0.8740604879  1.6157987302 -0.3141501772
   C -1.1626471896  0.9222034433  0.8600505241
   C -0.2117341605 -0.6894313453 -1.2453784520
   C  0.9896521176 -0.2240187463  1.2056623040
   O  1.7439184315  2.3415010522 -0.0250996160
   O  1.9314411397 -0.9093884276  1.1910028069
   O -1.1673425240 -0.3379105694 -1.8099952515
   O -2.1005406819  0.2160068466  1.2252607161
   N  0.8834232566  3.0815049912 -2.0175504108
   N  2.0344406898 -1.0871188474  3.4210556734
   N -1.5503392516 -1.5668351132 -3.7360231846
   N -2.4198991066  2.5348866847  1.5706440447
   O  0.6609804245  3.6981103247 -3.0227795413
   O  0.1061766502  2.0499863939 -1.7938626682
   O  2.8686616701 -1.5612804866  4.1571695219
   O  1.0842175679 -0.3697510262  3.6851867996
   O -1.9078630102 -0.9117476405 -4.6655603017
   O -1.1067939800 -2.6688759860 -3.6166286008
   O -2.5743247911  3.6561803864  1.7376540608
   O -1.2125337042  2.2041767152  0.8590609937
