21 
 Energy -897.40909817992   Step 11
   N  0.6718881059  0.0182651659  1.1639927098
   C -0.7217853677 -0.4040877654  1.2497480146
   N -1.3435536737  0.0196369732  0.0000000000
   C -0.7217853677 -0.4040877654 -1.2497480146
   N  0.6718881059  0.0182651659 -1.1639927098
   C  1.4437523125 -0.4033435474  0.0000000000
   N  1.3699718436  0.0968888811  2.3737152810
   N  1.3699718436  0.0968888811 -2.3737152810
   N -2.7401403285  0.1015901229  0.0000000000
   O  0.6922265936  0.1417103939  3.3943989304
   O  2.5927603597  0.1423786550  2.2972834368
   O  2.5927603597  0.1423786550 -2.2972834368
   O  0.6922265936  0.1417103939 -3.3943989304
   O -3.2851031443  0.1480879984 -1.0972264092
   O -3.2851031443  0.1480879984  1.0972264092
   H -0.8028142165 -1.4961047851 -1.3888481204
   H -1.2010991605  0.1025912411 -2.0806078091
   H  2.4020047488  0.1051303064  0.0000000000
   H  1.6069882485 -1.4950329010  0.0000000000
   H -0.8028142165 -1.4961047851  1.3888481204
   H -1.2010991605  0.1025912411  2.0806078091
