612
[[25.882300000000001, 0, 0], [-12.941149999999995, 22.414729308369978, 0], [4.2138259388461707e-16, 7.2985606203331917e-16, 6.8817000000000021]]
Zn 5.38610663 7.98412657964 0.92077146
Zn 16.27479024 0.672441879251 0.92077146
Zn 17.16255313 13.7581608495 0.92077146
Zn 7.55504337 14.4306027287 5.96092854
Zn -3.33364024 21.7422874291 5.96092854
Zn -4.22140313 8.65656845889 5.96092854
Zn -7.54210222 15.4482314393 3.21237756
Zn 3.34658139 8.13654673894 3.21237756
Zn 4.23434428 21.2222657092 3.21237756
Zn -5.37316548 21.8947075884 1.37083464
Zn -3.32069909 6.79166298044 1.37083464
Zn 8.73268802 16.1206733186 1.37083464
Zn 18.31431548 0.520021719954 5.51086536
Zn 16.26184909 15.6230663279 5.51086536
Zn 4.20846198 6.29405598979 5.51086536
Zn 20.48325222 6.96649786904 3.66932244
Zn 9.59456861 14.2781825694 3.66932244
Zn 8.70680572 1.19246359921 3.66932244
O 4.48540259 6.54958390391 2.48635821
O 17.96749266 0.609680637188 2.48635821
O 16.37055475 15.2554647673 2.48635821
O 8.45574741 15.8651454045 4.39534179
O -5.02634266 21.8050486712 4.39534179
O -3.42940475 7.15926454109 4.39534179
O 17.43949374 14.0136887636 4.77796431
O 5.03928381 8.07378549687 4.77796431
O 16.3834959 0.304840318594 4.77796431
O 8.46868856 0.914520955781 6.68694789
O 20.86889849 6.8544242225 6.68694789
O 9.5246864 14.6233694008 6.68694789
O 4.47246144 21.5002083526 0.19475211
O -7.92774849 15.5603050859 0.19475211
O 3.4164636 7.79135990759 0.19475211
O -4.49834374 8.40104054478 2.10373569
O 7.90186619 14.3409438115 2.10373569
O -3.4423459 22.1098889898 2.10373569
O 4.877519435 4.97382843353 4.17650373
O 19.136078505 1.7371415214 4.17650373
O 14.80985206 15.7037593534 4.17650373
O 8.063630565 17.4409008748 2.70519627
O -6.194928505 20.677587787 2.70519627
O -1.86870206 6.71096995493 2.70519627
O 17.831610585 12.4379332932 6.46810983
O 6.207869655 9.20124638109 6.46810983
O 14.82279321 0.753134904761 6.46810983
O 8.076571715 2.49027642616 4.99680237
O 19.700312645 5.72696333829 4.99680237
O 11.08538909 14.1750748146 4.99680237
O 4.864578285 19.9244528822 1.88489763
O -6.759162645 16.6877659701 1.88489763
O 1.85576091 8.23965449376 1.88489763
O -4.890460585 9.97679601516 0.41359017
O 6.733280345 13.2134829273 0.41359017
O -1.88164321 21.6615944036 0.41359017
O 5.58798857 6.17301645153 6.82320555
O 17.74231665 1.75283183191 6.82320555
O 15.49314478 14.4888810249 6.82320555
O 7.35316143 16.2417128568 0.05849445
O -4.80116665 20.6618974765 0.05849445
O -2.55199478 7.92584828344 0.05849445
O -7.34022028 13.6371213112 2.23311165
O 4.8141078 9.2169366916 2.23311165
O 2.56493593 21.9529858846 2.23311165
O 7.36610258 1.29108840816 2.35010055
O 21.0940745 5.71127302777 2.35010055
O 10.40209637 15.3899531431 2.35010055
O 5.57504742 21.1236409002 4.53159945
O -8.1529245 16.7034562806 4.53159945
O 2.53905363 7.02477616524 4.53159945
O 20.28137028 8.77760799716 4.64858835
O 8.1270422 13.1977926168 4.64858835
O 10.37621407 0.461743423752 4.64858835
C 5.022460315 5.39522534452 3.00386205
C 18.698667635 1.65196555003 3.00386205
C 15.10232205 15.3675384138 3.00386205
C 7.918689685 17.0195039638 3.87783795
C -5.757517635 20.7627637583 3.87783795
C -2.16117205 7.04719089455 3.87783795
C 17.976551465 12.8593302042 5.29546815
C 5.770458785 9.11607040971 5.29546815
C 15.1152632 0.416913965136 5.29546815
C 7.931630835 2.06887951516 6.16944405
C 20.137723515 5.81213930966 6.16944405
C 10.7929191 14.5112957542 6.16944405
C 5.009519165 20.3458497932 0.71225595
C -7.196573515 16.6025899987 0.71225595
C 2.1482309 7.90343355413 0.71225595
C -5.035401465 9.55539910416 1.58623185
C 7.170691215 13.2986588987 1.58623185
C -2.1741132 21.9978153432 1.58623185
C 5.69669423 4.62191718339 2.0094564
C 19.03125519 2.62252332908 2.0094564
C 14.09550058 15.1702887959 2.0094564
C 7.24445577 17.792812125 4.8722436
C -6.09010519 19.7922059793 4.8722436
C -1.15435058 7.24444051247 4.8722436
C 18.65078538 12.0860220431 4.3010625
C 6.10304634 10.0866281888 4.3010625
C 14.10844173 0.219664347222 4.3010625
C 7.25739692 2.8421876763 0.2821497
C 19.80513596 4.84158153061 0.2821497
C 11.79974057 14.7085453722 0.2821497
C 5.68375308 19.5725416321 6.5995503
C -6.86398596 17.5731477778 6.5995503
C 1.14140943 7.70618393622 6.5995503
C -5.70963538 10.3287072653 2.5806375
C 6.83810366 12.3281011196 2.5806375
C -1.16729173 22.1950649611 2.5806375
C 6.062928775 4.89761835388 0.56017038
C 18.6093737 2.80184116355 0.56017038
C 14.151147525 14.7152697909 0.56017038
C 6.878221225 17.5171109545 6.32152962
C -5.6682237 19.6128881448 6.32152962
C -1.209997525 7.69945951743 6.32152962
C -6.865280075 12.3617232136 2.85177648
C 5.68116485 10.2659460232 2.85177648
C 1.222938675 22.1793746506 2.85177648
C 6.891162375 2.56648650581 1.73143572
C 20.22701745 4.66226369614 1.73143572
C 11.744093625 15.1635643771 1.73143572
C 6.049987625 19.8482428026 5.15026428
C -7.28586745 17.7524656122 5.15026428
C 1.197056375 7.25116493126 5.15026428
C 19.806430075 10.0530060948 4.02992352
C 7.25998515 12.1487832851 4.02992352
C 11.718211325 0.235354657738 4.02992352
C 6.77080968 4.09741251757 6.69658227
C 18.94843183 3.81498692828 6.69658227
C 13.10420849 14.5023298625 6.69658227
C 6.17034032 18.3173167908 0.18511773
C -6.00728183 18.5997423801 0.18511773
C -0.16305849 7.91239944585 0.18511773
C -6.15739917 11.5615173773 2.10648837
C 6.02022298 11.279091788 2.10648837
C 0.17599964 21.9664347222 2.10648837
C 6.18328147 3.36669234212 2.47672383
C 19.88795932 3.6491179314 2.47672383
C 12.79103266 15.3765043055 2.47672383
C 6.75786853 19.0480369663 4.40497617
C -6.94680932 18.765611377 4.40497617
C 0.15011734 7.03822500283 4.40497617
C 19.09854917 10.8532119311 4.77521163
C 6.92092702 11.1356375204 4.77521163
C 12.76515036 0.448294586167 4.77521163
H 6.89504472 4.58605361649 5.72282172
H 18.463138705 3.6782570795 5.72282172
H 13.465266575 14.1504186124 5.72282172
H 6.04610528 17.8286756919 1.15887828
H -5.521988705 18.7364722289 1.15887828
H -0.524116575 8.264310696 1.15887828
H -6.03316413 12.0501584762 1.13272782
H 5.534929855 11.1423619392 1.13272782
H 0.537057725 21.6145234721 1.13272782
H 6.05904643 2.87805124319 3.45048438
H 20.373252445 3.78584778018 3.45048438
H 12.429974575 15.7284155557 3.45048438
H 6.88210357 19.5366780652 3.43121562
H -7.432102445 18.6288815282 3.43121562
H 0.511175425 6.68631375269 3.43121562
H 18.97431413 10.3645708322 5.74897218
H 7.406220145 11.2723673692 5.74897218
H 12.404092275 0.800205836309 5.74897218
H -7.649513765 22.2600676761 0.63819784728
H -2.511877215 4.66002222321 0.63819784728
H 10.16139098 17.9093687174 0.63819784728
H 20.590663765 0.154661632228 6.24350215272
H 15.453027215 17.7547070852 6.24350215272
H 2.77975902 4.50536059098 6.24350215272
H 18.245727385 7.30944322746 2.92980394728
H 10.442213935 12.1241270829 2.92980394728
H 10.17433213 2.9587442687 2.92980394728
H 7.662454915 7.61876649191 1.65340825272
H 15.465968365 2.80408263648 1.65340825272
H 15.73385017 11.9694654507 1.65340825272
H 5.278695085 14.7959628165 5.22829174728
H -2.524818365 19.6106466719 5.22829174728
H -2.79270017 10.4452638577 5.22829174728
H -5.304577385 15.1052860809 3.95189605272
H 2.498936065 10.2906022255 3.95189605272
H 2.76681787 19.4559850397 3.95189605272
H -7.649513765 22.2600676761 6.77889841272
H -2.511877215 4.66002222321 6.77889841272
H 10.16139098 17.9093687174 6.77889841272
H 20.590663765 0.154661632228 0.10280158728
H 15.453027215 17.7547070852 0.10280158728
H 2.77975902 4.50536059098 0.10280158728
H 18.245727385 7.30944322746 2.18880451272
H 10.442213935 12.1241270829 2.18880451272
H 10.17433213 2.9587442687 2.18880451272
H 7.662454915 7.61876649191 2.39440768728
H 15.465968365 2.80408263648 2.39440768728
H 15.73385017 11.9694654507 2.39440768728
H 5.278695085 14.7959628165 4.48729231272
H -2.524818365 19.6106466719 4.48729231272
H -2.79270017 10.4452638577 4.48729231272
H -5.304577385 15.1052860809 4.69289548728
H 2.498936065 10.2906022255 4.69289548728
H 2.76681787 19.4559850397 4.69289548728
H 11.229035855 2.58890123512 0.28034944728
H 18.025727835 8.43017969288 0.28034944728
H 9.56868631 11.3956483804 0.28034944728
H 1.712114145 19.8258280733 6.60135055272
H -5.084577835 13.9845496155 6.60135055272
H 3.37246369 11.019080928 6.60135055272
H -1.699172995 10.0530060948 2.57195554728
H 5.097518985 15.8942845526 2.57195554728
H -3.35952254 18.8597532401 2.57195554728
H 1.725055295 4.87520362457 2.01125665272
H 7.869513315 21.4486544752 2.01125665272
H -9.55574516 18.4831857877 2.01125665272
H 11.216094705 17.5395256838 4.87044334728
H 5.071636685 0.966074833191 4.87044334728
H 22.49689516 3.93154352069 4.87044334728
H 14.640322995 12.3617232136 4.30974445272
H 7.843631015 6.5204447558 4.30974445272
H 16.30067254 3.55497606831 4.30974445272
H 11.229035855 2.58890123512 6.42105001272
H 18.025727835 8.43017969288 6.42105001272
H 9.56868631 11.3956483804 6.42105001272
H 1.712114145 19.8258280733 0.46064998728
H -5.084577835 13.9845496155 0.46064998728
H 3.37246369 11.019080928 0.46064998728
H -1.699172995 10.0530060948 1.83095611272
H 5.097518985 15.8942845526 1.83095611272
H -3.35952254 18.8597532401 1.83095611272
H 1.725055295 4.87520362457 2.75225608728
H 7.869513315 21.4486544752 2.75225608728
H -9.55574516 18.4831857877 2.75225608728
H 11.216094705 17.5395256838 4.12944391272
H 5.071636685 0.966074833191 4.12944391272
H 22.49689516 3.93154352069 4.12944391272
H 14.640322995 12.3617232136 5.05074388728
H 7.843631015 6.5204447558 5.05074388728
H 16.30067254 3.55497606831 5.05074388728
H 16.364084175 5.31004937315 1.5637837446
H 13.10162026 11.5166879186 1.5637837446
H 9.357745565 5.58799201658 1.5637837446
H -3.422934175 17.1046799352 5.3179162554
H -0.16047026 10.8980413897 5.3179162554
H 3.583404435 16.8267372918 5.3179162554
H 3.435875325 12.7741542328 3.8553898446
H 0.17341141 18.9807927783 3.8553898446
H -3.570463285 13.0520968763 3.8553898446
H 22.472306975 2.15405548653 0.7278223554
H 12.79362089 18.3621462494 0.7278223554
H 3.596345585 1.87611284311 0.7278223554
H -9.531156975 20.2606738218 6.1538776446
H 0.14752911 4.05258305895 6.1538776446
H 9.344804415 20.5386164653 6.1538776446
H 9.505274675 9.64057507553 3.0263101554
H 12.76773859 3.43393653004 3.0263101554
H 16.511613285 9.36263243211 3.0263101554
H 16.364084175 5.31004937315 0.8227898154
H 13.10162026 11.5166879186 0.8227898154
H 9.357745565 5.58799201658 0.8227898154
H -3.422934175 17.1046799352 6.0589101846
H -0.16047026 10.8980413897 6.0589101846
H 3.583404435 16.8267372918 6.0589101846
H 3.435875325 12.7741542328 3.1143959154
H 0.17341141 18.9807927783 3.1143959154
H -3.570463285 13.0520968763 3.1143959154
H 22.472306975 2.15405548653 1.4688162846
H 12.79362089 18.3621462494 1.4688162846
H 3.596345585 1.87611284311 1.4688162846
H -9.531156975 20.2606738218 5.4128837154
H 0.14752911 4.05258305895 5.4128837154
H 9.344804415 20.5386164653 5.4128837154
H 9.505274675 9.64057507553 3.7673040846
H 12.76773859 3.43393653004 3.7673040846
H 16.511613285 9.36263243211 3.7673040846
H 12.846679605 5.59247496244 0.62993980728
H 14.61573481 8.32931341099 0.62993980728
H 11.361035585 8.49294093494 0.62993980728
H 0.094470395 16.8222543459 6.25176019272
H -1.67458481 14.0854158974 6.25176019272
H 1.580114415 13.9217883734 6.25176019272
H -0.081529245 13.0565798221 2.92154590728
H 1.68752596 15.7934182707 2.92154590728
H -1.567173265 15.9570457946 2.92154590728
H 0.107411545 1.87162989725 1.66166629272
H 11.27950634 21.5495207571 1.66166629272
H -11.348094435 21.3858932331 1.66166629272
H 12.833738455 20.5430994111 5.22003370728
H 1.66164366 0.865208551303 5.22003370728
H 24.289244435 1.02883607525 5.22003370728
H 13.022679245 9.35814948624 3.96015409272
H 11.25362404 6.62131103769 3.96015409272
H 14.508323265 6.45768351374 3.96015409272
H 12.846679605 5.59247496244 6.77064037272
H 14.61573481 8.32931341099 6.77064037272
H 11.361035585 8.49294093494 6.77064037272
H 0.094470395 16.8222543459 0.11105962728
H -1.67458481 14.0854158974 0.11105962728
H 1.580114415 13.9217883734 0.11105962728
H -0.081529245 13.0565798221 2.18054647272
H 1.68752596 15.7934182707 2.18054647272
H -1.567173265 15.9570457946 2.18054647272
H 0.107411545 1.87162989725 2.40266572728
H 11.27950634 21.5495207571 2.40266572728
H -11.348094435 21.3858932331 2.40266572728
H 12.833738455 20.5430994111 4.47903427272
H 1.66164366 0.865208551303 4.47903427272
H 24.289244435 1.02883607525 4.47903427272
H 13.022679245 9.35814948624 4.70115352728
H 11.25362404 6.62131103769 4.70115352728
H 14.508323265 6.45768351374 4.70115352728
Zn 5.38610663 7.98412657964 7.80247146
Zn 16.27479024 0.672441879251 7.80247146
Zn 17.16255313 13.7581608495 7.80247146
Zn 7.55504337 14.4306027287 12.84262854
Zn -3.33364024 21.7422874291 12.84262854
Zn -4.22140313 8.65656845889 12.84262854
Zn -7.54210222 15.4482314393 10.09407756
Zn 3.34658139 8.13654673894 10.09407756
Zn 4.23434428 21.2222657092 10.09407756
Zn -5.37316548 21.8947075884 8.25253464
Zn -3.32069909 6.79166298044 8.25253464
Zn 8.73268802 16.1206733186 8.25253464
Zn 18.31431548 0.520021719954 12.39256536
Zn 16.26184909 15.6230663279 12.39256536
Zn 4.20846198 6.29405598979 12.39256536
Zn 20.48325222 6.96649786904 10.55102244
Zn 9.59456861 14.2781825694 10.55102244
Zn 8.70680572 1.19246359921 10.55102244
O 4.48540259 6.54958390391 9.36805821
O 17.96749266 0.609680637188 9.36805821
O 16.37055475 15.2554647673 9.36805821
O 8.45574741 15.8651454045 11.27704179
O -5.02634266 21.8050486712 11.27704179
O -3.42940475 7.15926454109 11.27704179
O 17.43949374 14.0136887636 11.65966431
O 5.03928381 8.07378549687 11.65966431
O 16.3834959 0.304840318594 11.65966431
O 8.46868856 0.914520955781 13.56864789
O 20.86889849 6.8544242225 13.56864789
O 9.5246864 14.6233694008 13.56864789
O 4.47246144 21.5002083526 7.07645211
O -7.92774849 15.5603050859 7.07645211
O 3.4164636 7.79135990759 7.07645211
O -4.49834374 8.40104054478 8.98543569
O 7.90186619 14.3409438115 8.98543569
O -3.4423459 22.1098889898 8.98543569
O 4.877519435 4.97382843353 11.05820373
O 19.136078505 1.7371415214 11.05820373
O 14.80985206 15.7037593534 11.05820373
O 8.063630565 17.4409008748 9.58689627
O -6.194928505 20.677587787 9.58689627
O -1.86870206 6.71096995493 9.58689627
O 17.831610585 12.4379332932 13.34980983
O 6.207869655 9.20124638109 13.34980983
O 14.82279321 0.753134904761 13.34980983
O 8.076571715 2.49027642616 11.87850237
O 19.700312645 5.72696333829 11.87850237
O 11.08538909 14.1750748146 11.87850237
O 4.864578285 19.9244528822 8.76659763
O -6.759162645 16.6877659701 8.76659763
O 1.85576091 8.23965449376 8.76659763
O -4.890460585 9.97679601516 7.29529017
O 6.733280345 13.2134829273 7.29529017
O -1.88164321 21.6615944036 7.29529017
O 5.58798857 6.17301645153 13.70490555
O 17.74231665 1.75283183191 13.70490555
O 15.49314478 14.4888810249 13.70490555
O 7.35316143 16.2417128568 6.94019445
O -4.80116665 20.6618974765 6.94019445
O -2.55199478 7.92584828344 6.94019445
O -7.34022028 13.6371213112 9.11481165
O 4.8141078 9.2169366916 9.11481165
O 2.56493593 21.9529858846 9.11481165
O 7.36610258 1.29108840816 9.23180055
O 21.0940745 5.71127302777 9.23180055
O 10.40209637 15.3899531431 9.23180055
O 5.57504742 21.1236409002 11.41329945
O -8.1529245 16.7034562806 11.41329945
O 2.53905363 7.02477616524 11.41329945
O 20.28137028 8.77760799716 11.53028835
O 8.1270422 13.1977926168 11.53028835
O 10.37621407 0.461743423752 11.53028835
C 5.022460315 5.39522534452 9.88556205
C 18.698667635 1.65196555003 9.88556205
C 15.10232205 15.3675384138 9.88556205
C 7.918689685 17.0195039638 10.75953795
C -5.757517635 20.7627637583 10.75953795
C -2.16117205 7.04719089455 10.75953795
C 17.976551465 12.8593302042 12.17716815
C 5.770458785 9.11607040971 12.17716815
C 15.1152632 0.416913965136 12.17716815
C 7.931630835 2.06887951516 13.05114405
C 20.137723515 5.81213930966 13.05114405
C 10.7929191 14.5112957542 13.05114405
C 5.009519165 20.3458497932 7.59395595
C -7.196573515 16.6025899987 7.59395595
C 2.1482309 7.90343355413 7.59395595
C -5.035401465 9.55539910416 8.46793185
C 7.170691215 13.2986588987 8.46793185
C -2.1741132 21.9978153432 8.46793185
C 5.69669423 4.62191718339 8.8911564
C 19.03125519 2.62252332908 8.8911564
C 14.09550058 15.1702887959 8.8911564
C 7.24445577 17.792812125 11.7539436
C -6.09010519 19.7922059793 11.7539436
C -1.15435058 7.24444051247 11.7539436
C 18.65078538 12.0860220431 11.1827625
C 6.10304634 10.0866281888 11.1827625
C 14.10844173 0.219664347222 11.1827625
C 7.25739692 2.8421876763 7.1638497
C 19.80513596 4.84158153061 7.1638497
C 11.79974057 14.7085453722 7.1638497
C 5.68375308 19.5725416321 13.4812503
C -6.86398596 17.5731477778 13.4812503
C 1.14140943 7.70618393622 13.4812503
C -5.70963538 10.3287072653 9.4623375
C 6.83810366 12.3281011196 9.4623375
C -1.16729173 22.1950649611 9.4623375
C 6.062928775 4.89761835388 7.44187038
C 18.6093737 2.80184116355 7.44187038
C 14.151147525 14.7152697909 7.44187038
C 6.878221225 17.5171109545 13.20322962
C -5.6682237 19.6128881448 13.20322962
C -1.209997525 7.69945951743 13.20322962
C -6.865280075 12.3617232136 9.73347648
C 5.68116485 10.2659460232 9.73347648
C 1.222938675 22.1793746506 9.73347648
C 6.891162375 2.56648650581 8.61313572
C 20.22701745 4.66226369614 8.61313572
C 11.744093625 15.1635643771 8.61313572
C 6.049987625 19.8482428026 12.03196428
C -7.28586745 17.7524656122 12.03196428
C 1.197056375 7.25116493126 12.03196428
C 19.806430075 10.0530060948 10.91162352
C 7.25998515 12.1487832851 10.91162352
C 11.718211325 0.235354657738 10.91162352
C 6.77080968 4.09741251757 13.57828227
C 18.94843183 3.81498692828 13.57828227
C 13.10420849 14.5023298625 13.57828227
C 6.17034032 18.3173167908 7.06681773
C -6.00728183 18.5997423801 7.06681773
C -0.16305849 7.91239944585 7.06681773
C -6.15739917 11.5615173773 8.98818837
C 6.02022298 11.279091788 8.98818837
C 0.17599964 21.9664347222 8.98818837
C 6.18328147 3.36669234212 9.35842383
C 19.88795932 3.6491179314 9.35842383
C 12.79103266 15.3765043055 9.35842383
C 6.75786853 19.0480369663 11.28667617
C -6.94680932 18.765611377 11.28667617
C 0.15011734 7.03822500283 11.28667617
C 19.09854917 10.8532119311 11.65691163
C 6.92092702 11.1356375204 11.65691163
C 12.76515036 0.448294586167 11.65691163
H 6.89504472 4.58605361649 12.60452172
H 18.463138705 3.6782570795 12.60452172
H 13.465266575 14.1504186124 12.60452172
H 6.04610528 17.8286756919 8.04057828
H -5.521988705 18.7364722289 8.04057828
H -0.524116575 8.264310696 8.04057828
H -6.03316413 12.0501584762 8.01442782
H 5.534929855 11.1423619392 8.01442782
H 0.537057725 21.6145234721 8.01442782
H 6.05904643 2.87805124319 10.33218438
H 20.373252445 3.78584778018 10.33218438
H 12.429974575 15.7284155557 10.33218438
H 6.88210357 19.5366780652 10.31291562
H -7.432102445 18.6288815282 10.31291562
H 0.511175425 6.68631375269 10.31291562
H 18.97431413 10.3645708322 12.63067218
H 7.406220145 11.2723673692 12.63067218
H 12.404092275 0.800205836309 12.63067218
H -7.649513765 22.2600676761 7.51989784728
H -2.511877215 4.66002222321 7.51989784728
H 10.16139098 17.9093687174 7.51989784728
H 20.590663765 0.154661632228 13.1252021527
H 15.453027215 17.7547070852 13.1252021527
H 2.77975902 4.50536059098 13.1252021527
H 18.245727385 7.30944322746 9.81150394728
H 10.442213935 12.1241270829 9.81150394728
H 10.17433213 2.9587442687 9.81150394728
H 7.662454915 7.61876649191 8.53510825272
H 15.465968365 2.80408263648 8.53510825272
H 15.73385017 11.9694654507 8.53510825272
H 5.278695085 14.7959628165 12.1099917473
H -2.524818365 19.6106466719 12.1099917473
H -2.79270017 10.4452638577 12.1099917473
H -5.304577385 15.1052860809 10.8335960527
H 2.498936065 10.2906022255 10.8335960527
H 2.76681787 19.4559850397 10.8335960527
H -7.649513765 22.2600676761 13.6605984127
H -2.511877215 4.66002222321 13.6605984127
H 10.16139098 17.9093687174 13.6605984127
H 20.590663765 0.154661632228 6.98450158728
H 15.453027215 17.7547070852 6.98450158728
H 2.77975902 4.50536059098 6.98450158728
H 18.245727385 7.30944322746 9.07050451272
H 10.442213935 12.1241270829 9.07050451272
H 10.17433213 2.9587442687 9.07050451272
H 7.662454915 7.61876649191 9.27610768728
H 15.465968365 2.80408263648 9.27610768728
H 15.73385017 11.9694654507 9.27610768728
H 5.278695085 14.7959628165 11.3689923127
H -2.524818365 19.6106466719 11.3689923127
H -2.79270017 10.4452638577 11.3689923127
H -5.304577385 15.1052860809 11.5745954873
H 2.498936065 10.2906022255 11.5745954873
H 2.76681787 19.4559850397 11.5745954873
H 11.229035855 2.58890123512 7.16204944728
H 18.025727835 8.43017969288 7.16204944728
H 9.56868631 11.3956483804 7.16204944728
H 1.712114145 19.8258280733 13.4830505527
H -5.084577835 13.9845496155 13.4830505527
H 3.37246369 11.019080928 13.4830505527
H -1.699172995 10.0530060948 9.45365554728
H 5.097518985 15.8942845526 9.45365554728
H -3.35952254 18.8597532401 9.45365554728
H 1.725055295 4.87520362457 8.89295665272
H 7.869513315 21.4486544752 8.89295665272
H -9.55574516 18.4831857877 8.89295665272
H 11.216094705 17.5395256838 11.7521433473
H 5.071636685 0.966074833191 11.7521433473
H 22.49689516 3.93154352069 11.7521433473
H 14.640322995 12.3617232136 11.1914444527
H 7.843631015 6.5204447558 11.1914444527
H 16.30067254 3.55497606831 11.1914444527
H 11.229035855 2.58890123512 13.3027500127
H 18.025727835 8.43017969288 13.3027500127
H 9.56868631 11.3956483804 13.3027500127
H 1.712114145 19.8258280733 7.34234998728
H -5.084577835 13.9845496155 7.34234998728
H 3.37246369 11.019080928 7.34234998728
H -1.699172995 10.0530060948 8.71265611272
H 5.097518985 15.8942845526 8.71265611272
H -3.35952254 18.8597532401 8.71265611272
H 1.725055295 4.87520362457 9.63395608728
H 7.869513315 21.4486544752 9.63395608728
H -9.55574516 18.4831857877 9.63395608728
H 11.216094705 17.5395256838 11.0111439127
H 5.071636685 0.966074833191 11.0111439127
H 22.49689516 3.93154352069 11.0111439127
H 14.640322995 12.3617232136 11.9324438873
H 7.843631015 6.5204447558 11.9324438873
H 16.30067254 3.55497606831 11.9324438873
H 16.364084175 5.31004937315 8.4454837446
H 13.10162026 11.5166879186 8.4454837446
H 9.357745565 5.58799201658 8.4454837446
H -3.422934175 17.1046799352 12.1996162554
H -0.16047026 10.8980413897 12.1996162554
H 3.583404435 16.8267372918 12.1996162554
H 3.435875325 12.7741542328 10.7370898446
H 0.17341141 18.9807927783 10.7370898446
H -3.570463285 13.0520968763 10.7370898446
H 22.472306975 2.15405548653 7.6095223554
H 12.79362089 18.3621462494 7.6095223554
H 3.596345585 1.87611284311 7.6095223554
H -9.531156975 20.2606738218 13.0355776446
H 0.14752911 4.05258305895 13.0355776446
H 9.344804415 20.5386164653 13.0355776446
H 9.505274675 9.64057507553 9.9080101554
H 12.76773859 3.43393653004 9.9080101554
H 16.511613285 9.36263243211 9.9080101554
H 16.364084175 5.31004937315 7.7044898154
H 13.10162026 11.5166879186 7.7044898154
H 9.357745565 5.58799201658 7.7044898154
H -3.422934175 17.1046799352 12.9406101846
H -0.16047026 10.8980413897 12.9406101846
H 3.583404435 16.8267372918 12.9406101846
H 3.435875325 12.7741542328 9.9960959154
H 0.17341141 18.9807927783 9.9960959154
H -3.570463285 13.0520968763 9.9960959154
H 22.472306975 2.15405548653 8.3505162846
H 12.79362089 18.3621462494 8.3505162846
H 3.596345585 1.87611284311 8.3505162846
H -9.531156975 20.2606738218 12.2945837154
H 0.14752911 4.05258305895 12.2945837154
H 9.344804415 20.5386164653 12.2945837154
H 9.505274675 9.64057507553 10.6490040846
H 12.76773859 3.43393653004 10.6490040846
H 16.511613285 9.36263243211 10.6490040846
H 12.846679605 5.59247496244 7.51163980728
H 14.61573481 8.32931341099 7.51163980728
H 11.361035585 8.49294093494 7.51163980728
H 0.094470395 16.8222543459 13.1334601927
H -1.67458481 14.0854158974 13.1334601927
H 1.580114415 13.9217883734 13.1334601927
H -0.081529245 13.0565798221 9.80324590728
H 1.68752596 15.7934182707 9.80324590728
H -1.567173265 15.9570457946 9.80324590728
H 0.107411545 1.87162989725 8.54336629272
H 11.27950634 21.5495207571 8.54336629272
H -11.348094435 21.3858932331 8.54336629272
H 12.833738455 20.5430994111 12.1017337073
H 1.66164366 0.865208551303 12.1017337073
H 24.289244435 1.02883607525 12.1017337073
H 13.022679245 9.35814948624 10.8418540927
H 11.25362404 6.62131103769 10.8418540927
H 14.508323265 6.45768351374 10.8418540927
H 12.846679605 5.59247496244 13.6523403727
H 14.61573481 8.32931341099 13.6523403727
H 11.361035585 8.49294093494 13.6523403727
H 0.094470395 16.8222543459 6.99275962728
H -1.67458481 14.0854158974 6.99275962728
H 1.580114415 13.9217883734 6.99275962728
H -0.081529245 13.0565798221 9.06224647272
H 1.68752596 15.7934182707 9.06224647272
H -1.567173265 15.9570457946 9.06224647272
H 0.107411545 1.87162989725 9.28436572728
H 11.27950634 21.5495207571 9.28436572728
H -11.348094435 21.3858932331 9.28436572728
H 12.833738455 20.5430994111 11.3607342727
H 1.66164366 0.865208551303 11.3607342727
H 24.289244435 1.02883607525 11.3607342727
H 13.022679245 9.35814948624 11.5828535273
H 11.25362404 6.62131103769 11.5828535273
H 14.508323265 6.45768351374 11.5828535273
